*Heading
** Job name: Analysis Model name: Model-1
** Generated by: Abaqus/CAE 6.14-2
*Preprint, echo=NO, model=NO, history=NO, contact=NO
**
** PARTS
**
*Part, name=wing_structure
*Node
      1,  0.800000012, 0.00788810197, 0.0199999996
      2,  0.800000012, 0.00788810197,           0.
      3,  0.699999988, 0.00653392728,           0.
      4,  0.699999988, 0.00653392728, 0.0199999996
      5,  0.600000024, 0.00195455458, 0.0199999996
      6,  0.600000024, 0.00195455458,           0.
      7,          0.5, -0.0049772542,           0.
      8,          0.5, -0.0049772542, 0.0199999996
      9,  0.349999994, -0.0173876844, 0.0199999996
     10,  0.349999994, -0.0173876844,           0.
     11,  0.300000012, -0.0213460028,           0.
     12,  0.300000012, -0.0213460028, 0.0199999996
     13,  0.119999997, -0.0284939595, 0.0199999996
     14,  0.119999997, -0.0284939595,           0.
     15,  0.100000001, -0.0277983807,           0.
     16,  0.100000001, -0.0277983807, 0.0199999996
     17,  0.292499989, -0.0219046008,           0.
     18,  0.292499989, -0.0219046716, 0.0199999996
     19,           0.,           0.,           0.
     20,           0.,           0., 0.0199999996
** ... 348 like lines cut
*Element, type=S4R
1,   1,   2, 147, 154
2, 154, 147, 148, 153
3, 153, 148, 149, 152
4, 152, 149, 150, 151
5, 151, 150,   3,   4
 6,   5,   6, 155, 162
 7, 162, 155, 156, 161
 8, 161, 156, 157, 160
 9, 160, 157, 158, 159
10, 159, 158,   7,   8
11,   9,  10, 163, 166
12, 166, 163, 164, 165
13, 165, 164,  11,  12
14, 13, 14, 15, 16
15,   6,   5, 167, 174
16, 174, 167, 168, 173
17, 173, 168, 169, 172
18, 172, 169, 170, 171
19, 171, 170,   4,   3
20,  10,   9, 175, 188
** ... 169 like lines cut
*Nset, nset=Set-OML
   1,   2,   3,   4,   5,   6,   7,   8,   9,  10,  11,  12,  13,  14,  15,  16
  17,  18,  19,  20,  21,  22,  23,  24,  25,  26,  27,  28,  29,  30,  31,  32
  33,  34,  35,  36,  37,  38,  39,  40,  41,  42,  43,  44,  45,  46,  47,  48
  49,  50,  51,  52, 147, 148, 149, 150, 151, 152, 153, 154, 155, 156, 157, 158
 159, 160, 161, 162, 163, 164, 165, 166, 167, 168, 169, 170, 171, 172, 173, 174
 175, 176, 177, 178, 179, 180, 181, 182, 183, 184, 185, 186, 187, 188, 189, 190
 191, 192, 193, 194, 195, 196, 197, 198, 199, 200, 201, 202, 203, 204, 205, 206
 207, 208, 209, 210, 211, 212, 213, 214, 215, 216, 217, 218, 219, 220, 221, 222
 223, 224, 225, 226, 227, 228, 229, 230, 231, 232, 233, 234, 235, 236, 237, 238
 239, 240, 241, 242, 243, 244, 245, 246, 247, 248, 249, 250, 251, 252, 253, 254
 255, 256, 257, 258, 259, 260, 261, 262, 263, 264, 265, 266, 267, 268, 269, 270
 271, 272, 273, 274, 275, 276, 277, 278, 279, 280, 281, 282, 283, 284, 285, 286
 287, 288, 289, 290, 291, 292, 293, 294, 295, 296, 297, 298, 299, 300, 301, 302
 303, 304, 305, 306, 307, 308, 309, 310, 311, 312, 319, 320, 321, 322
*Elset, elset=Set-OML
   1,   2,   3,   4,   5,   6,   7,   8,   9,  10,  11,  12,  13,  14,  15,  16
  17,  18,  19,  20,  21,  22,  23,  24,  25,  26,  27,  28,  29,  30,  31,  32
  33,  34,  35,  36,  37,  38,  39,  40,  41,  42,  43,  44,  45,  46,  47,  48
  49,  50,  51,  52,  53,  54,  55,  56,  57,  58,  59,  60,  61,  62,  63,  64
  65,  66,  67,  68,  69,  70,  71,  72,  73,  74,  75,  76,  77,  78,  79,  80
  81,  82,  83,  84,  85,  86,  87,  88,  89,  90,  91,  92,  93,  94,  95,  96
  97,  98,  99, 100, 101, 102, 103, 104, 105, 106, 107, 108, 122, 123, 124, 125
*Nset, nset=Set-Venation-Structure
  19,  20,  39,  40,  41,  42,  43,  44,  51,  52,  53,  54,  55,  56,  57,  58
  59,  60,  61,  62,  63,  64,  65,  66,  67,  68,  69,  70,  71,  72,  73,  74
  75,  76,  77,  78,  79,  80,  81,  82,  83,  84,  85,  86,  87,  88,  89,  90
  91,  92,  93,  94,  95,  96,  97,  98,  99, 100, 101, 102, 103, 104, 105, 106
 107, 108, 109, 110, 111, 112, 113, 114, 115, 116, 117, 118, 119, 120, 121, 122
 123, 124, 125, 126, 127, 128, 129, 130, 131, 132, 133, 134, 135, 136, 137, 138
 139, 140, 141, 142, 143, 144, 145, 146, 313, 314, 315, 316, 317, 318, 319, 320
 321, 322, 323, 324, 325, 326, 327, 328, 329, 330, 331, 332, 333, 334, 335, 336
 337, 338, 339, 340, 341, 342, 347, 348, 349, 350, 351, 352, 353, 354, 355, 356
 357, 358, 359, 360, 361, 362, 367, 368
*Elset, elset=Set-Venation-Structure
 110, 111, 112, 113, 114, 115, 116, 117, 118, 119, 120, 121, 122, 123, 124, 125
 126, 127, 128, 129, 130, 131, 132, 133, 134, 135, 136, 137, 138, 139, 140, 141
 142, 143, 144, 145, 146, 147, 148, 149, 150, 151, 156, 157, 158, 159, 160, 161
 162, 163, 164, 165, 166, 167, 168, 169, 170, 171, 172, 173, 174, 175, 176, 177
 178, 179, 180, 181, 186, 187, 188, 189
*Nset, nset=Set-Spars
  17,  18,  37,  38,  47,  48,  49,  50, 103, 104, 139, 140, 343, 344, 345, 346
 363, 364, 365, 366
*Elset, elset=Set-Spars
 152, 153, 154, 155, 182, 183, 184, 185
*Nset, nset=Set-SMA
   1,   2,   3,   4,   5,   6,   7,   8,   9,  10,  11,  12,  13,  14,  15,  16
  21,  22,  23,  24,  25,  26,  27,  28,  29,  30,  31,  32,  33,  34,  35,  36
 147, 148, 149, 150, 151, 152, 153, 154, 155, 156, 157, 158, 159, 160, 161, 162
 163, 164, 165, 166, 201, 202, 203, 204, 205, 206, 207, 208, 209, 210, 211, 212
 213, 214, 215, 216, 217, 218, 219, 220
*Elset, elset=Set-SMA
  1,  2,  3,  4,  5,  6,  7,  8,  9, 10, 11, 12, 13, 14, 36, 37
 38, 39, 40, 41, 42, 43, 44, 45, 46, 47, 48, 49
*Nset, nset=Set-OML-Aluminum
   1,   2,   3,   4,   5,   6,   7,   8,   9,  10,  11,  12,  13,  14,  15,  16
  17,  18,  19,  20,  21,  22,  23,  24,  25,  26,  27,  28,  29,  30,  31,  32
  33,  34,  35,  36,  37,  38,  39,  40,  41,  42,  43,  44,  45,  46,  47,  48
  49,  50,  51,  52, 167, 168, 169, 170, 171, 172, 173, 174, 175, 176, 177, 178
 179, 180, 181, 182, 183, 184, 185, 186, 187, 188, 189, 190, 191, 192, 193, 194
 195, 196, 197, 198, 199, 200, 221, 222, 223, 224, 225, 226, 227, 228, 229, 230
 231, 232, 233, 234, 235, 236, 237, 238, 239, 240, 241, 242, 243, 244, 245, 246
 247, 248, 249, 250, 251, 252, 253, 254, 255, 256, 257, 258, 259, 260, 261, 262
 263, 264, 265, 266, 267, 268, 269, 270, 271, 272, 273, 274, 275, 276, 277, 278
 279, 280, 281, 282, 283, 284, 285, 286, 287, 288, 289, 290, 291, 292, 293, 294
 295, 296, 297, 298, 299, 300, 301, 302, 303, 304, 305, 306, 307, 308, 309, 310
 311, 312, 319, 320, 321, 322
*Elset, elset=Set-OML-Aluminum
  15,  16,  17,  18,  19,  20,  21,  22,  23,  24,  25,  26,  27,  28,  29,  30
  31,  32,  33,  34,  35,  50,  51,  52,  53,  54,  55,  56,  57,  58,  59,  60
  61,  62,  63,  64,  65,  66,  67,  68,  69,  70,  71,  72,  73,  74,  75,  76
  77,  78,  79,  80,  81,  82,  83,  84,  85,  86,  87,  88,  89,  90,  91,  92
  93,  94,  95,  96,  97,  98,  99, 100, 101, 102, 103, 104, 105, 106, 107, 108
 109, 122, 123, 124, 125
*Elset, elset=_Surf-OML_SNEG, internal
   1,   2,   3,   4,   5,   6,   7,   8,   9,  10,  11,  12,  13,  14,  15,  16
  17,  18,  19,  20,  21,  22,  23,  24,  25,  26,  27,  28,  29,  30,  31,  32
  33,  34,  35,  36,  37,  38,  39,  40,  41,  42,  43,  44,  45,  46,  47,  48
  49,  50,  51,  52,  53,  54,  55,  56,  57,  58,  59,  60,  61,  62,  63,  64
  65,  66,  67,  68,  69,  70,  71,  72,  73,  74,  75,  76,  77,  78,  79,  80
  81,  82,  83,  84,  85,  86,  87,  88,  89,  90,  91,  92,  93,  94,  95,  96
  97,  98,  99, 100, 101, 102, 103, 104, 105, 106, 107, 108, 122, 123, 124, 125
*Surface, type=ELEMENT, name=Surf-OML
_Surf-OML_SNEG, SNEG
** Section: Section-SMA
*Shell Section, elset=Set-SMA, material=SMA
0.002, 5
** Region: (Section-AL-2024:Set-OML-Aluminum)
*Elset, elset=_I2, internal
  15,  16,  17,  18,  19,  20,  21,  22,  23,  24,  25,  26,  27,  28,  29,  30
  31,  32,  33,  34,  35,  50,  51,  52,  53,  54,  55,  56,  57,  58,  59,  60
  61,  62,  63,  64,  65,  66,  67,  68,  69,  70,  71,  72,  73,  74,  75,  76
  77,  78,  79,  80,  81,  82,  83,  84,  85,  86,  87,  88,  89,  90,  91,  92
  93,  94,  95,  96,  97,  98,  99, 100, 101, 102, 103, 104, 105, 106, 107, 108
 109,
** Section: Section-AL-2024
*Shell Section, elset=_I2, material=AL-2024
0.002, 5
** Section: Section-AL-6061
*Shell Section, elset=Set-Venation-Structure, material=AL-6061
0.002, 5
** Section: Section-AL-6061
*Shell Section, elset=Set-Spars, material=AL-6061
0.002, 5
*End Part
**  
**
** ASSEMBLY
**
*Assembly, name=Assembly
**  
*Instance, name=wing_structure-1, part=wing_structure
*End Instance
**  
*Nset, nset=Set-OML, instance=wing_structure-1
   1,   2,   3,   4,   5,   6,   7,   8,   9,  10,  11,  12,  13,  14,  15,  16
  17,  18,  19,  20,  21,  22,  23,  24,  25,  26,  27,  28,  29,  30,  31,  32
  33,  34,  35,  36,  37,  38,  39,  40,  41,  42,  43,  44,  45,  46,  47,  48
  49,  50,  51,  52, 147, 148, 149, 150, 151, 152, 153, 154, 155, 156, 157, 158
 159, 160, 161, 162, 163, 164, 165, 166, 167, 168, 169, 170, 171, 172, 173, 174
 175, 176, 177, 178, 179, 180, 181, 182, 183, 184, 185, 186, 187, 188, 189, 190
 191, 192, 193, 194, 195, 196, 197, 198, 199, 200, 201, 202, 203, 204, 205, 206
 207, 208, 209, 210, 211, 212, 213, 214, 215, 216, 217, 218, 219, 220, 221, 222
 223, 224, 225, 226, 227, 228, 229, 230, 231, 232, 233, 234, 235, 236, 237, 238
 239, 240, 241, 242, 243, 244, 245, 246, 247, 248, 249, 250, 251, 252, 253, 254
 255, 256, 257, 258, 259, 260, 261, 262, 263, 264, 265, 266, 267, 268, 269, 270
 271, 272, 273, 274, 275, 276, 277, 278, 279, 280, 281, 282, 283, 284, 285, 286
 287, 288, 289, 290, 291, 292, 293, 294, 295, 296, 297, 298, 299, 300, 301, 302
 303, 304, 305, 306, 307, 308, 309, 310, 311, 312, 319, 320, 321, 322
*Elset, elset=Set-OML, instance=wing_structure-1
   1,   2,   3,   4,   5,   6,   7,   8,   9,  10,  11,  12,  13,  14,  15,  16
  17,  18,  19,  20,  21,  22,  23,  24,  25,  26,  27,  28,  29,  30,  31,  32
  33,  34,  35,  36,  37,  38,  39,  40,  41,  42,  43,  44,  45,  46,  47,  48
  49,  50,  51,  52,  53,  54,  55,  56,  57,  58,  59,  60,  61,  62,  63,  64
  65,  66,  67,  68,  69,  70,  71,  72,  73,  74,  75,  76,  77,  78,  79,  80
  81,  82,  83,  84,  85,  86,  87,  88,  89,  90,  91,  92,  93,  94,  95,  96
  97,  98,  99, 100, 101, 102, 103, 104, 105, 106, 107, 108, 122, 123, 124, 125
*Nset, nset=Set-Venation-Structure, instance=wing_structure-1
  19,  20,  39,  40,  41,  42,  43,  44,  51,  52,  53,  54,  55,  56,  57,  58
  59,  60,  61,  62,  63,  64,  65,  66,  67,  68,  69,  70,  71,  72,  73,  74
  75,  76,  77,  78,  79,  80,  81,  82,  83,  84,  85,  86,  87,  88,  89,  90
  91,  92,  93,  94,  95,  96,  97,  98,  99, 100, 101, 102, 103, 104, 105, 106
 107, 108, 109, 110, 111, 112, 113, 114, 115, 116, 117, 118, 119, 120, 121, 122
 123, 124, 125, 126, 127, 128, 129, 130, 131, 132, 133, 134, 135, 136, 137, 138
 139, 140, 141, 142, 143, 144, 145, 146, 313, 314, 315, 316, 317, 318, 319, 320
 321, 322, 323, 324, 325, 326, 327, 328, 329, 330, 331, 332, 333, 334, 335, 336
 337, 338, 339, 340, 341, 342, 347, 348, 349, 350, 351, 352, 353, 354, 355, 356
 357, 358, 359, 360, 361, 362, 367, 368
*Elset, elset=Set-Venation-Structure, instance=wing_structure-1
 110, 111, 112, 113, 114, 115, 116, 117, 118, 119, 120, 121, 122, 123, 124, 125
 126, 127, 128, 129, 130, 131, 132, 133, 134, 135, 136, 137, 138, 139, 140, 141
 142, 143, 144, 145, 146, 147, 148, 149, 150, 151, 156, 157, 158, 159, 160, 161
 162, 163, 164, 165, 166, 167, 168, 169, 170, 171, 172, 173, 174, 175, 176, 177
 178, 179, 180, 181, 186, 187, 188, 189
*Nset, nset=TIPNODE, instance=wing_structure-1
 46,
*End Assembly
** 
** MATERIALS
** 
*Material, name=AL-2024
*Density
2768.,
*Elastic
 7.2395e+10, 0.33
*Material, name=AL-6061
*Density
2768.,
*Elastic
 7.2395e+10, 0.33
*Material, name=SMA
*Density
6450.,
*Elastic
 4e+10, 0.3
** ----------------------------------------------------------------
** 
** STEP: Aerodynamic loading
** 
*Step, name="Aerodynamic loading", nlgeom=YES
*Static
1., 1., 1e-05, 1.
** 
** BOUNDARY CONDITIONS
** 
** Name: BC-Encastre Type: Symmetry/Antisymmetry/Encastre
*Boundary
wing_structure-1.Set-Spars, ENCASTRE
** 
** LOADS
** 
** Name: Pressure   Type: Pressure Using Field: Distribution
*Dload
wing_structure-1.1, P, 45.0481
wing_structure-1.2, P, 45.1925
wing_structure-1.3, P, 45.191
wing_structure-1.4, P, 45.2596
wing_structure-1.5, P, 45.1198
wing_structure-1.6, P, 35.8614
wing_structure-1.7, P, 34.9923
wing_structure-1.8, P, 33.8168
wing_structure-1.9, P, 32.6028
wing_structure-1.10, P, 31.189
wing_structure-1.11, P, 16.017
wing_structure-1.12, P, 14.2774
wing_structure-1.13, P, 12.4479
wing_structure-1.14, P, -0.399466
wing_structure-1.15, P, 36.4994
wing_structure-1.16, P, 39.2872
wing_structure-1.17, P, 43.043
wing_structure-1.18, P, 44.4812
wing_structure-1.19, P, 45.0781
wing_structure-1.20, P, 17.8418
** ... 92 like lines cut
** 
** OUTPUT REQUESTS
** 
*Restart, write, frequency=0
** 
** FIELD OUTPUT: F-Output-1
** 
*Output, field, variable=PRESELECT
** 
** HISTORY OUTPUT: H-Output-1
** 
*Output, history, variable=PRESELECT
*End Step
** ----------------------------------------------------------------
** 
** STEP: Morphing displacement
** 
*Step, name="Morphing displacement", nlgeom=YES
*Static
1., 1., 1e-05, 1.
** 
** BOUNDARY CONDITIONS
** 
** Name: BC-Encastre Type: Symmetry/Antisymmetry/Encastre
*Boundary, op=NEW
** Name: Displacement Type: Displacement/Rotation
*Boundary, op=NEW
wing_structure-1.Set-OML, 2, 2, 10.
** 
** LOADS
** 
** Name: Pressure   Type: Pressure Using Field: Distribution
*Dload, op=NEW
** 
** OUTPUT REQUESTS
** 
*Restart, write, frequency=0
** 
** FIELD OUTPUT: F-Output-1
** 
*Output, field, variable=PRESELECT
** 
** HISTORY OUTPUT: H-Output-1
** 
*Output, history, variable=PRESELECT
*End Step
