*Heading
** Job name: Analysis Model name: Model-1
** Generated by: Abaqus/CAE 6.14-2
*Preprint, echo=NO, model=NO, history=NO, contact=NO
**
** PARTS
**
*Part, name=wing_structure
*Node
      1,  0.800000012, 0.00788810197,           0.
      2,  0.800000012, 0.00788810197, 0.00200000009
      3,  0.790027976, 0.00791999977, 0.00200000009
      4,  0.790027976, 0.00791999977,           0.
      5,  0.600000024, 0.00195455458,           0.
      6,  0.600000024, 0.00195455458, 0.00200000009
      7,     0.586824, 0.00115499995, 0.00200000009
      8,     0.586824, 0.00115499995,           0.
      9,  0.349999994, -0.0173876844,           0.
     10,  0.349999994, -0.0173876844, 0.00200000009
     11,  0.300000012, -0.0213460028, 0.00200000009
     12,  0.300000012, -0.0213460028,           0.
     13,  0.119999997, -0.0284939595,           0.
     14,  0.119999997, -0.0284939595, 0.00200000009
     15,  0.100000001, -0.0277983807, 0.00200000009
     16,  0.100000001, -0.0277983807,           0.
     17,  0.699999988, 0.00653392728,           0.
     18,  0.699999988, 0.00653392728, 0.00200000009
     19,  0.693172991, 0.00631499989, 0.00200000009
     20,  0.693172991, 0.00631499989,           0.
** ... 6534 like lines cut
*Element, type=S4R
1,   1,   2, 399, 406
2, 406, 399, 400, 405
3, 405, 400, 401, 404
4, 404, 401, 402, 403
5, 403, 402,   3,   4
 6,   5,   6, 407, 418
 7, 418, 407, 408, 417
 8, 417, 408, 409, 416
 9, 416, 409, 410, 415
10, 415, 410, 411, 414
11, 414, 411, 412, 413
12, 413, 412,   7,   8
13,   9,  10, 419, 466
14, 466, 419, 420, 465
15, 465, 420, 421, 464
16, 464, 421, 422, 463
17, 463, 422, 423, 462
18, 462, 423, 424, 461
19, 461, 424, 425, 460
20, 460, 425, 426, 459
** ... 3441 like lines cut
*Nset, nset=Set-OML
    3,    4,    7,    8,    9,   10,   11,   12,   13,   14,   15,   16,   19,   20,   21,   22
   23,   24,   25,   26,   27,   28,   31,   32,   35,   36,   37,   38,   39,   40,   41,   42
   43,   44,   45,   46,   47,   48,   49,   50,   51,   52,   53,   54,   55,   56,   57,   58
   59,   60,   61,   62,   63,   64,   65,   66,   67,   68,   69,   70,   71,   72,   73,   74
   75,   76,   77,   78,   79,   80,   81,   82,   83,   84,   85,   86,   87,   88,   89,   90
   91,   92,   93,   94,   95,   96,   97,   98,   99,  100,  101,  102,  103,  104,  105,  106
  107,  108,  109,  110,  111,  112,  113,  114,  115,  116,  117,  118,  121,  122,  123,  124
  125,  126,  127,  128,  129,  130,  131,  132,  133,  134,  135,  136,  137,  138,  139,  140
  141,  142,  143,  144,  145,  146,  147,  148,  149,  150,  151,  152,  153,  154,  155,  156
  157,  158,  159,  160,  321,  322,  323,  324,  325,  326,  327,  328,  329,  330,  331,  332
  333,  334,  335,  336,  337,  338,  419,  420,  421,  422,  423,  424,  425,  426,  427,  428
  429,  430,  431,  432,  433,  434,  435,  436,  437,  438,  439,  440,  441,  442,  443,  444
  445,  446,  447,  448,  449,  450,  451,  452,  453,  454,  455,  456,  457,  458,  459,  460
  461,  462,  463,  464,  465,  466,  467,  468,  469,  470,  471,  472,  473,  474,  475,  476
  477,  478,  479,  480,  481,  482,  483,  484,  489,  490,  491,  492,  493,  494,  495,  496
  497,  498,  499,  500,  501,  502,  503,  504,  505,  506,  507,  508,  509,  510,  511,  512
  513,  514,  515,  516,  517,  518,  519,  520,  521,  522,  523,  524,  525,  526,  527,  528
  529,  530,  531,  532,  533,  534,  535,  536,  537,  538,  539,  540,  541,  542,  543,  544
  545,  546,  547,  548,  549,  550,  551,  552,  553,  554,  555,  556,  557,  558,  559,  560
  561,  562,  563,  564,  565,  566,  567,  568,  569,  570,  571,  572,  573,  574,  575,  576
** ... 111 like lines cut
*Elset, elset=Set-OML
   13,   14,   15,   16,   17,   18,   19,   20,   21,   22,   23,   24,   25,   26,   27,   28
   29,   30,   31,   32,   33,   34,   35,   36,   37,   38,   39,   40,   41,   42,   43,   44
   45,   46,   47,   51,   52,   53,   54,   55,   56,   57,   58,   59,   60,   61,   62,   63
   64,   65,   66,   67,   68,   69,   70,   71,   72,   73,   74,   75,   76,   77,   78,   79
   80,   81,   82,   83,   84,   85,   86,   87,   88,   89,   90,   91,   92,   93,   94,   95
   96,   97,   98,   99,  100,  101,  102,  103,  104,  105,  106,  107,  108,  109,  110,  111
  112,  113,  114,  115,  116,  117,  118,  119,  120,  133,  134,  135,  136,  137,  138,  139
  140,  141,  142,  143,  144,  145,  146,  147,  148,  149,  150,  151,  152,  153,  154,  155
  156,  157,  158,  159,  160,  161,  162,  163,  164,  165,  166,  167,  168,  169,  170,  171
  172,  173,  174,  175,  176,  177,  178,  179,  180,  181,  182,  183,  184,  185,  186,  187
  188,  189,  190,  191,  192,  193,  194,  195,  196,  197,  198,  199,  200,  201,  202,  203
  204,  205,  206,  207,  208,  209,  210,  211,  212,  213,  214,  215,  216,  217,  218,  219
  220,  221,  222,  223,  224,  225,  226,  227,  228,  229,  230,  231,  232,  233,  234,  235
  236,  237,  238,  239,  240,  241,  242,  243,  244,  245,  246,  247,  248,  249,  250,  251
  252,  253,  254,  255,  256,  257,  258,  259,  260,  261,  262,  263,  264,  265,  266,  267
  268,  269,  270,  271,  272,  273,  274,  275,  276,  277,  278,  279,  280,  281,  282,  283
  284,  285,  286,  449,  450,  451,  452,  453,  454,  455,  456,  457,  458,  459,  460,  461
  462,  463,  464,  465,  466,  467,  468,  469,  470,  471,  472,  473,  474,  475,  476,  477
  478,  479,  480,  481,  482,  483,  484,  485,  486,  487,  488,  489,  490,  491,  492,  493
  494,  495,  496,  497,  498,  499,  500,  501,  502,  503,  504,  505,  506,  507,  508,  509
** ... 46 like lines cut
*Nset, nset=Set-All, generate
    1,  6554,     1
*Elset, elset=Set-All, generate
    1,  3461,     1
*Nset, nset=Set-Spars
   25,   26,   55,   56,  113,  114,  125,  126,  162,  163,  166,  167,  193,  194, 2295, 2296
 2297, 2298, 2299, 2300, 2301, 2302, 2303, 2304, 2305, 2306, 2307, 2308, 2309, 2310, 2311, 2312
 2313, 2314, 2315, 2316, 2317, 2318, 2319, 2320, 2321, 2322, 2323, 2324, 2325, 2326, 2327, 2328
 2329, 2330, 2331, 2332, 2333, 2334, 2335, 2336, 2337, 2338, 2339, 2340, 2693, 2694, 2695, 2696
 2697, 2698, 2699, 2700, 2701, 2702, 2703, 2704, 2705, 2706, 2707, 2708, 2709, 2710, 2711, 2712
 2713, 2714, 2715, 2716, 2717, 2718, 2719, 2720, 2721, 2722, 2723, 2724, 2725, 2726, 2727, 2728
 2773, 2774, 2775, 2776, 2777, 2778, 2779, 2780, 2781, 2782, 2783, 2784, 2785, 2786, 2787, 2788
 2789, 2790, 2791, 2792, 2793, 2794, 2795, 2796, 2797, 2798, 2799, 2800, 2801, 2802, 2803, 2804
 2805, 2806, 2807, 2808, 2809, 2810, 2811, 2812, 2813, 2814, 2815, 2816, 2817, 2818, 2819, 2820
 2821, 2822, 2823, 2824, 2825, 2826, 2827, 2828, 2829, 2830, 2831, 2832, 2833, 2834, 2835, 2836
 2837, 2838, 2839, 2840, 2841, 2842, 2843, 2844, 2845, 2846, 2847, 2848, 2849, 2850, 2851, 2852
 2853, 2854, 2855, 2856, 2857, 2858
*Elset, elset=Set-Spars
 1029, 1030, 1031, 1032, 1033, 1034, 1035, 1036, 1037, 1038, 1039, 1040, 1041, 1042, 1043, 1044
 1045, 1046, 1047, 1048, 1049, 1050, 1051, 1052, 1245, 1246, 1247, 1248, 1249, 1250, 1251, 1252
 1253, 1254, 1255, 1256, 1257, 1258, 1259, 1260, 1261, 1262, 1263, 1289, 1290, 1291, 1292, 1293
 1294, 1295, 1296, 1297, 1298, 1299, 1300, 1301, 1302, 1303, 1304, 1305, 1306, 1307, 1308, 1309
 1310, 1311, 1312, 1313, 1314, 1315, 1316, 1317, 1318, 1319, 1320, 1321, 1322, 1323, 1324, 1325
 1326, 1327, 1328, 1329, 1330, 1331, 1332, 1333
*Nset, nset=Set-SMA
    3,    4,    7,    8,    9,   10,   11,   12,   13,   14,   15,   16,   21,   22,   31,   32
   35,   36,   39,   40,   41,   42,   43,   44,   45,   46,   49,   50,   53,   54,   87,   88
   89,   90,   91,   92,   93,   94,   95,   96,   97,   98,  111,  112,  131,  132,  133,  134
  135,  136,  137,  138,  139,  140,  141,  142,  143,  144,  145,  146,  147,  148,  419,  420
  421,  422,  423,  424,  425,  426,  427,  428,  429,  430,  431,  432,  433,  434,  435,  436
  437,  438,  439,  440,  441,  442,  443,  444,  445,  446,  447,  448,  449,  450,  451,  452
  453,  454,  455,  456,  457,  458,  459,  460,  461,  462,  463,  464,  465,  466,  467,  468
  469,  470,  471,  472,  473,  474,  475,  476,  477,  478,  479,  480,  481,  482,  483,  484
  655,  656,  657,  658,  659,  660,  661,  662,  663,  664,  665,  666, 1035, 1036, 1037, 1038
 1039, 1040, 1041, 1042, 1043, 1044, 1045, 1046, 1047, 1048, 1049, 1050, 1051, 1052, 1053, 1054
 1055, 1056, 1057, 1058, 1059, 1060, 1061, 1062, 1063, 1064, 1065, 1066, 1067, 1068, 1069, 1070
 1071, 1072, 1073, 1074, 1075, 1076, 1077, 1078, 1079, 1080, 1081, 1082, 1083, 1084, 1085, 1086
 1087, 1088, 1089, 1090, 1091, 1092, 1093, 1094, 1095, 1096, 1097, 1098, 1099, 1100, 1101, 1102
 1103, 1104, 1105, 1106, 1193, 1194, 1195, 1196, 1197, 1198, 1199, 1200, 1201, 1202, 1203, 1204
 1205, 1206, 1207, 1208, 1209, 1210, 1211, 1212, 1213, 1214, 1215, 1216, 1217, 1218, 1219, 1220
 1221, 1222, 1223, 1224, 1225, 1226, 1227, 1228, 1229, 1230, 1231, 1232, 1233, 1234, 1235, 1236
 1237, 1238, 1239, 1240, 1241, 1242, 1243, 1244, 1245, 1246, 1247, 1248, 1249, 1250, 1251, 1252
 1253, 1254, 1255, 1256, 1257, 1258, 1259, 1260, 1261, 1262, 1263, 1264, 1265, 1266, 1267, 1268
 1269, 1270, 1271, 1272, 1273, 1274, 1275, 1276, 1829, 1830, 1831, 1832, 1833, 1834, 1835, 1836
 1837, 1838, 1839, 1840, 1841, 1842, 1843, 1844, 1845, 1846, 1847, 1848, 1849, 1850, 1851, 1852
** ... 11 like lines cut
*Elset, elset=Set-SMA
  13,  14,  15,  16,  17,  18,  19,  20,  21,  22,  23,  24,  25,  26,  27,  28
  29,  30,  31,  32,  33,  34,  35,  36,  37,  38,  39,  40,  41,  42,  43,  44
  45,  46,  47, 140, 141, 142, 143, 144, 145, 146, 348, 349, 350, 351, 352, 353
 354, 355, 356, 357, 358, 359, 360, 361, 362, 363, 364, 365, 366, 367, 368, 369
 370, 371, 372, 373, 374, 375, 376, 377, 378, 379, 380, 381, 382, 383, 384, 385
 386, 387, 388, 389, 441, 442, 443, 444, 445, 446, 447, 448, 449, 450, 451, 452
 453, 454, 455, 456, 457, 458, 459, 460, 461, 462, 463, 464, 465, 466, 467, 468
 469, 470, 471, 472, 473, 474, 475, 476, 477, 478, 479, 480, 481, 482, 483, 484
 773, 774, 775, 776, 777, 778, 779, 780, 781, 782, 783, 784, 785, 786, 787, 788
 789, 790, 831, 832, 833, 834, 835, 836, 837, 838, 839, 840, 841, 842, 843, 844
 845, 846, 847, 848, 849, 850, 851, 852, 853, 854, 855, 856, 857, 858, 859, 860
 861, 862, 863, 864, 865, 866, 867, 868, 869, 870, 871, 872, 873, 874, 876, 877
 878, 879, 880, 881, 882, 883, 884, 885, 886, 887, 888, 889, 890, 891, 892, 893
 894, 895, 896, 897, 898, 899, 900, 901, 902, 903, 904, 905, 906, 907, 908, 909
 910, 911, 912, 913, 914, 915, 916, 917, 918, 919, 920, 921
*Nset, nset=Set-OML-Aluminum
    3,    4,    7,    8,    9,   10,   11,   12,   13,   14,   15,   16,   19,   20,   21,   22
   23,   24,   25,   26,   27,   28,   31,   32,   35,   36,   37,   38,   39,   40,   41,   42
   43,   44,   45,   46,   47,   48,   49,   50,   51,   52,   53,   54,   55,   56,   57,   58
   59,   60,   61,   62,   63,   64,   65,   66,   67,   68,   69,   70,   71,   72,   73,   74
   75,   76,   77,   78,   79,   80,   81,   82,   83,   84,   85,   86,   87,   88,   89,   90
   91,   92,   93,   94,   95,   96,   97,   98,   99,  100,  101,  102,  103,  104,  105,  106
  107,  108,  109,  110,  111,  112,  113,  114,  115,  116,  117,  118,  121,  122,  123,  124
  125,  126,  127,  128,  129,  130,  131,  132,  133,  134,  135,  136,  137,  138,  139,  140
  141,  142,  143,  144,  145,  146,  147,  148,  149,  150,  151,  152,  153,  154,  155,  156
  157,  158,  159,  160,  321,  322,  323,  324,  325,  326,  327,  328,  329,  330,  331,  332
  333,  334,  335,  336,  337,  338,  419,  420,  421,  422,  423,  424,  425,  426,  427,  428
  429,  430,  431,  432,  433,  434,  435,  436,  437,  438,  439,  440,  441,  442,  443,  444
  445,  446,  447,  448,  449,  450,  451,  452,  453,  454,  455,  456,  457,  458,  459,  460
  461,  462,  463,  464,  465,  466,  467,  468,  469,  470,  471,  472,  473,  474,  475,  476
  477,  478,  479,  480,  481,  482,  483,  484,  489,  490,  491,  492,  493,  494,  495,  496
  497,  498,  499,  500,  501,  502,  503,  504,  505,  506,  507,  508,  509,  510,  511,  512
  513,  514,  515,  516,  517,  518,  519,  520,  521,  522,  523,  524,  525,  526,  527,  528
  529,  530,  531,  532,  533,  534,  535,  536,  537,  538,  539,  540,  541,  542,  543,  544
  545,  546,  547,  548,  549,  550,  551,  552,  553,  554,  555,  556,  557,  558,  559,  560
  561,  562,  563,  564,  565,  566,  567,  568,  569,  570,  571,  572,  573,  574,  575,  576
** ... 111 like lines cut
*Elset, elset=Set-OML-Aluminum
   13,   14,   15,   16,   17,   18,   19,   20,   21,   22,   23,   24,   25,   26,   27,   28
   29,   30,   31,   32,   33,   34,   35,   36,   37,   38,   39,   40,   41,   42,   43,   44
   45,   46,   47,   51,   52,   53,   54,   55,   56,   57,   58,   59,   60,   61,   62,   63
   64,   65,   66,   67,   68,   69,   70,   71,   72,   73,   74,   75,   76,   77,   78,   79
   80,   81,   82,   83,   84,   85,   86,   87,   88,   89,   90,   91,   92,   93,   94,   95
   96,   97,   98,   99,  100,  101,  102,  103,  104,  105,  106,  107,  108,  109,  110,  111
  112,  113,  114,  115,  116,  117,  118,  119,  120,  133,  134,  135,  136,  137,  138,  139
  140,  141,  142,  143,  144,  145,  146,  147,  148,  149,  150,  151,  152,  153,  154,  155
  156,  157,  158,  159,  160,  161,  162,  163,  164,  165,  166,  167,  168,  169,  170,  171
  172,  173,  174,  175,  176,  177,  178,  179,  180,  181,  182,  183,  184,  185,  186,  187
  188,  189,  190,  191,  192,  193,  194,  195,  196,  197,  198,  199,  200,  201,  202,  203
  204,  205,  206,  207,  208,  209,  210,  211,  212,  213,  214,  215,  216,  217,  218,  219
  220,  221,  222,  223,  224,  225,  226,  227,  228,  229,  230,  231,  232,  233,  234,  235
  236,  237,  238,  239,  240,  241,  242,  243,  244,  245,  246,  247,  248,  249,  250,  251
  252,  253,  254,  255,  256,  257,  258,  259,  260,  261,  262,  263,  264,  265,  266,  267
  268,  269,  270,  271,  272,  273,  274,  275,  276,  277,  278,  279,  280,  281,  282,  283
  284,  285,  286,  449,  450,  451,  452,  453,  454,  455,  456,  457,  458,  459,  460,  461
  462,  463,  464,  465,  466,  467,  468,  469,  470,  471,  472,  473,  474,  475,  476,  477
  478,  479,  480,  481,  482,  483,  484,  485,  486,  487,  488,  489,  490,  491,  492,  493
  494,  495,  496,  497,  498,  499,  500,  501,  502,  503,  504,  505,  506,  507,  508,  509
** ... 46 like lines cut
*Elset, elset=_Surf-OML_SNEG, internal
   13,   14,   15,   16,   17,   18,   19,   20,   21,   22,   23,   24,   25,   26,   27,   28
   29,   30,   31,   32,   33,   34,   35,   36,   37,   38,   39,   40,   41,   42,   43,   44
   45,   46,   47,   51,   52,   53,   54,   55,   56,   57,   58,   59,   60,   61,   62,   63
   64,   65,   66,   67,   68,   69,   70,   71,   72,   73,   74,   75,   76,   77,   78,   79
   80,   81,   82,   83,   84,   85,   86,   87,   88,   89,   90,   91,   92,   93,   94,   95
   96,   97,   98,   99,  100,  101,  102,  103,  104,  105,  106,  107,  108,  109,  110,  111
  112,  113,  114,  115,  116,  117,  118,  119,  120,  133,  134,  135,  136,  137,  138,  139
  140,  141,  142,  143,  144,  145,  146,  147,  148,  149,  150,  151,  152,  153,  154,  155
  156,  157,  158,  159,  160,  161,  162,  163,  164,  165,  166,  167,  168,  169,  170,  171
  172,  173,  174,  175,  176,  177,  178,  179,  180,  181,  182,  183,  184,  185,  186,  187
  188,  189,  190,  191,  192,  193,  194,  195,  196,  197,  198,  199,  200,  201,  202,  203
  204,  205,  206,  207,  208,  209,  210,  211,  212,  213,  214,  215,  216,  217,  218,  219
  220,  221,  222,  223,  224,  225,  226,  227,  228,  229,  230,  231,  232,  233,  234,  235
  236,  237,  238,  239,  240,  241,  242,  243,  244,  245,  246,  247,  248,  249,  250,  251
  252,  253,  254,  255,  256,  257,  258,  259,  260,  261,  262,  263,  264,  265,  266,  267
  268,  269,  270,  271,  272,  273,  274,  275,  276,  277,  278,  279,  280,  281,  282,  283
  284,  285,  286,  449,  450,  451,  452,  453,  454,  455,  456,  457,  458,  459,  460,  461
  462,  463,  464,  465,  466,  467,  468,  469,  470,  471,  472,  473,  474,  475,  476,  477
  478,  479,  480,  481,  482,  483,  484,  485,  486,  487,  488,  489,  490,  491,  492,  493
  494,  495,  496,  497,  498,  499,  500,  501,  502,  503,  504,  505,  506,  507,  508,  509
** ... 46 like lines cut
*Surface, type=ELEMENT, name=Surf-OML
_Surf-OML_SNEG, SNEG
** Section: Section-ABS
*Shell Section, elset=Set-All, material=ABS
0.001, 5
*End Part
**  
**
** ASSEMBLY
**
*Assembly, name=Assembly
**  
*Instance, name=wing_structure-1, part=wing_structure
*End Instance
**  
*Nset, nset=Set-OML, instance=wing_structure-1
    3,    4,    7,    8,    9,   10,   11,   12,   13,   14,   15,   16,   19,   20,   21,   22
   23,   24,   25,   26,   27,   28,   31,   32,   35,   36,   37,   38,   39,   40,   41,   42
   43,   44,   45,   46,   47,   48,   49,   50,   51,   52,   53,   54,   55,   56,   57,   58
   59,   60,   61,   62,   63,   64,   65,   66,   67,   68,   69,   70,   71,   72,   73,   74
   75,   76,   77,   78,   79,   80,   81,   82,   83,   84,   85,   86,   87,   88,   89,   90
   91,   92,   93,   94,   95,   96,   97,   98,   99,  100,  101,  102,  103,  104,  105,  106
  107,  108,  109,  110,  111,  112,  113,  114,  115,  116,  117,  118,  121,  122,  123,  124
  125,  126,  127,  128,  129,  130,  131,  132,  133,  134,  135,  136,  137,  138,  139,  140
  141,  142,  143,  144,  145,  146,  147,  148,  149,  150,  151,  152,  153,  154,  155,  156
  157,  158,  159,  160,  321,  322,  323,  324,  325,  326,  327,  328,  329,  330,  331,  332
  333,  334,  335,  336,  337,  338,  419,  420,  421,  422,  423,  424,  425,  426,  427,  428
  429,  430,  431,  432,  433,  434,  435,  436,  437,  438,  439,  440,  441,  442,  443,  444
  445,  446,  447,  448,  449,  450,  451,  452,  453,  454,  455,  456,  457,  458,  459,  460
  461,  462,  463,  464,  465,  466,  467,  468,  469,  470,  471,  472,  473,  474,  475,  476
  477,  478,  479,  480,  481,  482,  483,  484,  489,  490,  491,  492,  493,  494,  495,  496
  497,  498,  499,  500,  501,  502,  503,  504,  505,  506,  507,  508,  509,  510,  511,  512
  513,  514,  515,  516,  517,  518,  519,  520,  521,  522,  523,  524,  525,  526,  527,  528
  529,  530,  531,  532,  533,  534,  535,  536,  537,  538,  539,  540,  541,  542,  543,  544
  545,  546,  547,  548,  549,  550,  551,  552,  553,  554,  555,  556,  557,  558,  559,  560
  561,  562,  563,  564,  565,  566,  567,  568,  569,  570,  571,  572,  573,  574,  575,  576
** ... 111 like lines cut
*Elset, elset=Set-OML, instance=wing_structure-1
   13,   14,   15,   16,   17,   18,   19,   20,   21,   22,   23,   24,   25,   26,   27,   28
   29,   30,   31,   32,   33,   34,   35,   36,   37,   38,   39,   40,   41,   42,   43,   44
   45,   46,   47,   51,   52,   53,   54,   55,   56,   57,   58,   59,   60,   61,   62,   63
   64,   65,   66,   67,   68,   69,   70,   71,   72,   73,   74,   75,   76,   77,   78,   79
   80,   81,   82,   83,   84,   85,   86,   87,   88,   89,   90,   91,   92,   93,   94,   95
   96,   97,   98,   99,  100,  101,  102,  103,  104,  105,  106,  107,  108,  109,  110,  111
  112,  113,  114,  115,  116,  117,  118,  119,  120,  133,  134,  135,  136,  137,  138,  139
  140,  141,  142,  143,  144,  145,  146,  147,  148,  149,  150,  151,  152,  153,  154,  155
  156,  157,  158,  159,  160,  161,  162,  163,  164,  165,  166,  167,  168,  169,  170,  171
  172,  173,  174,  175,  176,  177,  178,  179,  180,  181,  182,  183,  184,  185,  186,  187
  188,  189,  190,  191,  192,  193,  194,  195,  196,  197,  198,  199,  200,  201,  202,  203
  204,  205,  206,  207,  208,  209,  210,  211,  212,  213,  214,  215,  216,  217,  218,  219
  220,  221,  222,  223,  224,  225,  226,  227,  228,  229,  230,  231,  232,  233,  234,  235
  236,  237,  238,  239,  240,  241,  242,  243,  244,  245,  246,  247,  248,  249,  250,  251
  252,  253,  254,  255,  256,  257,  258,  259,  260,  261,  262,  263,  264,  265,  266,  267
  268,  269,  270,  271,  272,  273,  274,  275,  276,  277,  278,  279,  280,  281,  282,  283
  284,  285,  286,  449,  450,  451,  452,  453,  454,  455,  456,  457,  458,  459,  460,  461
  462,  463,  464,  465,  466,  467,  468,  469,  470,  471,  472,  473,  474,  475,  476,  477
  478,  479,  480,  481,  482,  483,  484,  485,  486,  487,  488,  489,  490,  491,  492,  493
  494,  495,  496,  497,  498,  499,  500,  501,  502,  503,  504,  505,  506,  507,  508,  509
** ... 46 like lines cut
*Nset, nset=TIPNODE, instance=wing_structure-1
 63,
*End Assembly
** 
** MATERIALS
** 
*Material, name=ABS
*Density
1070.,
*Elastic
 2.32e+09, 0.3
** ----------------------------------------------------------------
** 
** STEP: Aerodynamic loading
** 
*Step, name="Aerodynamic loading", nlgeom=NO
*Static
1., 1., 1e-05, 1.
** 
** BOUNDARY CONDITIONS
** 
** Name: BC-Encastre Type: Symmetry/Antisymmetry/Encastre
*Boundary
wing_structure-1.Set-Spars, ENCASTRE
** 
** LOADS
** 
** Name: Pressure   Type: Pressure Using Field: Distribution
*Dload
wing_structure-1.13, P, 143.952
wing_structure-1.14, P, 143.881
wing_structure-1.15, P, 143.811
wing_structure-1.16, P, 143.741
wing_structure-1.17, P, 143.671
wing_structure-1.18, P, 143.601
wing_structure-1.19, P, 143.531
wing_structure-1.20, P, 143.679
wing_structure-1.21, P, 143.913
wing_structure-1.22, P, 144.146
wing_structure-1.23, P, 144.379
wing_structure-1.24, P, 144.612
wing_structure-1.25, P, 144.845
wing_structure-1.26, P, 145.078
wing_structure-1.27, P, 145.274
wing_structure-1.28, P, 145.365
wing_structure-1.29, P, 145.456
wing_structure-1.30, P, 145.548
wing_structure-1.31, P, 145.639
wing_structure-1.32, P, 145.73
** ... 1028 like lines cut
** 
** OUTPUT REQUESTS
** 
*Restart, write, frequency=0
** 
** FIELD OUTPUT: F-Output-1
** 
*Output, field, variable=PRESELECT
** 
** HISTORY OUTPUT: H-Output-1
** 
*Output, history, variable=PRESELECT
*End Step
