*Heading
** Job name: Job-1 Model name: Model-1
** Generated by: Abaqus/CAE 6.14-2
*Preprint, echo=NO, model=NO, history=NO, contact=NO
**
** PARTS
**
*Part, name=wing_structure
*Node
      1,  0.800000012, 0.00788810197,           0.
      2,  0.800000012, 0.00788810197,  0.100000001
      3,  0.799847126, 0.00788888894,  0.100000001
      4,  0.799847126, 0.00788888894,           0.
      5,  0.600000024, 0.00195455458,           0.
      6,  0.600000024, 0.00195455458,  0.100000001
      7,          0.5, -0.0049772542,  0.100000001
      8,          0.5, -0.0049772542,           0.
      9,  0.400000006, -0.0132009396,           0.
     10,  0.400000006, -0.0132009396,  0.100000001
     11,  0.300000012, -0.0213460028,  0.100000001
     12,  0.300000012, -0.0213460028,           0.
     13,  0.200000003, -0.0274264142,           0.
     14,  0.200000003, -0.0274264142,  0.100000001
     15,  0.100000001, -0.0277983807,  0.100000001
     16,  0.100000001, -0.0277983807,           0.
     17,  0.699999988, 0.00653392728,           0.
     18,  0.699999988, 0.00653392728,  0.100000001
     19,  0.699897885, 0.00653076358,  0.100000001
     20,  0.699897885, 0.00653076358,           0.
** ... 5073 like lines cut
*Element, type=S4R
 1,   1, 557, 574,   4
 2, 557, 558, 573, 574
 3, 558, 559, 572, 573
 4, 559, 560, 571, 572
 5, 560, 561, 570, 571
 6, 561, 562, 569, 570
 7, 562, 563, 568, 569
 8, 563, 564, 567, 568
 9, 564, 565, 566, 567
10, 565,   2,   3, 566
 11,    5,  575, 3429,  610
 12,  575,  576, 3430, 3429
 13,  576,  577, 3431, 3430
 14,  577,  578, 3432, 3431
 15,  578,  579, 3433, 3432
 16,  579,  580, 3434, 3433
 17,  580,  581, 3435, 3434
 18,  581,  582, 3436, 3435
 19,  582,  583, 3437, 3436
 20,  583,    6,  584, 3437
** ... 4650 like lines cut
*Nset, nset=Set-Venation-Structure
    3,    4,   19,   20,   21,   22,   39,   40,   45,   46,   47,   48,   49,   50,   51,   52
   53,   54,   55,   56,   59,   60,   61,   62,   63,   64,   65,   66,   67,   68,   69,   70
   71,   72,   73,   74,   75,   76,   77,   78,   79,   80,   81,   82,   83,   84,   85,   86
   87,   88,   89,   90,   91,   92,   93,   94,   95,   96,   97,   98,   99,  100,  101,  102
  103,  104,  105,  106,  107,  108,  109,  110,  111,  112,  113,  114,  115,  116,  117,  118
  119,  120,  121,  122,  123,  124,  125,  126,  127,  128,  129,  130,  131,  132,  133,  134
  135,  136,  137,  138,  139,  140,  141,  142,  143,  144,  145,  146,  147,  148,  149,  150
  151,  152,  153,  154,  155,  156,  157,  158,  159,  160,  161,  162,  163,  164,  165,  166
  167,  168,  169,  170,  171,  172,  173,  174,  175,  176,  177,  178,  179,  180,  181,  182
  183,  184,  185,  186,  187,  188,  189,  190,  191,  192,  193,  194,  195,  196,  197,  198
  199,  200,  201,  202,  203,  204,  205,  206,  207,  208,  209,  210,  211,  212,  213,  214
  215,  216,  217,  218,  219,  220,  221,  222,  223,  224,  225,  226,  227,  228,  229,  230
  231,  232,  233,  234,  235,  236,  237,  238,  239,  240,  241,  242,  243,  244,  245,  246
  247,  248,  249,  250,  251,  252,  253,  254,  255,  256,  257,  258,  259,  260,  261,  262
  263,  264,  265,  266,  267,  268,  269,  270,  271,  272,  273,  274,  275,  276,  277,  278
  279,  280,  281,  282,  283,  284,  285,  286,  287,  288,  289,  290,  291,  292,  293,  294
  295,  296,  297,  298,  299,  300,  301,  302,  303,  304,  305,  306,  307,  308,  309,  310
  311,  312,  313,  314,  315,  316,  317,  318,  319,  320,  323,  324,  325,  326,  327,  328
  329,  330,  331,  332,  333,  334,  335,  336,  337,  338,  339,  340,  341,  342,  343,  344
  347,  348,  349,  350,  351,  352,  353,  354,  355,  356,  357,  358,  359,  360,  361,  362
** ... 157 like lines cut
*Elset, elset=Set-Venation-Structure
 2071, 2072, 2073, 2074, 2075, 2076, 2077, 2078, 2079, 2080, 2081, 2082, 2083, 2084, 2085, 2086
 2087, 2088, 2089, 2090, 2091, 2092, 2093, 2094, 2095, 2096, 2097, 2098, 2099, 2100, 2101, 2102
 2103, 2104, 2105, 2106, 2107, 2108, 2109, 2110, 2111, 2112, 2113, 2114, 2115, 2116, 2117, 2118
 2119, 2120, 2121, 2122, 2123, 2124, 2125, 2126, 2127, 2128, 2129, 2130, 2151, 2152, 2153, 2154
 2155, 2156, 2157, 2158, 2159, 2160, 2161, 2162, 2163, 2164, 2165, 2166, 2167, 2168, 2169, 2170
 2171, 2172, 2173, 2174, 2175, 2176, 2177, 2178, 2179, 2180, 2181, 2182, 2183, 2184, 2185, 2186
 2187, 2188, 2189, 2190, 2191, 2192, 2193, 2194, 2195, 2196, 2197, 2198, 2199, 2200, 2201, 2202
 2203, 2204, 2205, 2206, 2207, 2208, 2209, 2210, 2211, 2212, 2213, 2214, 2215, 2216, 2217, 2218
 2219, 2220, 2221, 2222, 2223, 2224, 2225, 2226, 2227, 2228, 2229, 2230, 2231, 2232, 2233, 2234
 2235, 2236, 2237, 2238, 2239, 2240, 2241, 2242, 2243, 2244, 2245, 2246, 2247, 2248, 2249, 2250
 2251, 2252, 2253, 2254, 2255, 2256, 2257, 2258, 2259, 2260, 2261, 2262, 2263, 2264, 2265, 2266
 2267, 2268, 2269, 2270, 2271, 2272, 2273, 2274, 2275, 2276, 2277, 2278, 2279, 2280, 2281, 2282
 2283, 2284, 2285, 2286, 2287, 2288, 2289, 2290, 2291, 2292, 2293, 2294, 2295, 2296, 2297, 2298
 2299, 2300, 2301, 2302, 2303, 2304, 2305, 2306, 2307, 2308, 2309, 2310, 2311, 2312, 2313, 2314
 2315, 2316, 2317, 2318, 2319, 2320, 2321, 2322, 2323, 2324, 2325, 2326, 2327, 2328, 2329, 2330
 2331, 2332, 2333, 2334, 2335, 2336, 2337, 2338, 2339, 2340, 2341, 2342, 2343, 2344, 2345, 2346
 2347, 2348, 2349, 2350, 2351, 2352, 2353, 2354, 2355, 2356, 2357, 2358, 2359, 2360, 2361, 2362
 2363, 2364, 2365, 2366, 2367, 2368, 2369, 2370, 2371, 2372, 2373, 2374, 2375, 2376, 2377, 2378
 2379, 2380, 2381, 2382, 2383, 2384, 2385, 2386, 2387, 2388, 2389, 2390, 2391, 2392, 2393, 2394
 2395, 2396, 2397, 2398, 2399, 2400, 2401, 2402, 2403, 2404, 2405, 2406, 2407, 2408, 2409, 2410
** ... 140 like lines cut
*Nset, nset=Set-SMA
    3,    4,    5,    6,    7,    8,    9,   10,   11,   12,   13,   14,   15,   16,   17,   18
   23,   24,   25,   26,   27,   28,   29,   30,   31,   32,   33,   34,   35,   36,   37,   38
  566,  567,  568,  569,  570,  571,  572,  573,  574,  575,  576,  577,  578,  579,  580,  581
  582,  583,  584,  585,  586,  587,  588,  589,  590,  591,  592,  593,  594,  595,  596,  597
  598,  599,  600,  601,  602,  603,  604,  605,  606,  607,  608,  609,  610,  611,  612,  613
  614,  615,  616,  617,  618,  619,  620,  621,  622,  623,  624,  625,  626,  627,  628,  629
  630,  631,  632,  633,  634,  635,  636,  637,  638,  639,  640,  641,  642,  643,  644,  645
  646,  647,  648,  649,  650,  651,  652,  653,  654,  655,  656,  657,  658,  659,  660,  661
  662,  663,  664,  665,  666,  667,  668,  669,  670,  671,  672,  673,  674,  675,  676,  677
  678,  679,  680,  681,  682,  683,  684,  685,  686,  687,  688,  689,  690,  691,  766,  767
  768,  769,  770,  771,  772,  773,  774,  775,  776,  777,  778,  779,  780,  781,  782,  783
  784,  785,  786,  787,  788,  789,  790,  791,  792,  793,  794,  795,  796,  797,  798,  799
  800,  801,  802,  803,  804,  805,  806,  807,  808,  809,  810,  811,  812,  813,  814,  815
  816,  817,  818,  819,  820,  821,  822,  823,  824,  825,  826,  827,  828,  829,  830,  831
  832,  833,  834,  835,  836,  837,  838,  839,  840,  841,  842,  843,  844,  845,  846,  847
  848,  849,  850,  851,  852,  853,  854,  855,  856,  857,  858,  859,  860,  861,  862,  863
  864,  865,  866,  867,  868,  869,  870,  871,  872,  873,  874,  875,  876,  877,  878,  879
  880,  881,  882,  883,  884,  885,  886,  887,  888,  889,  890,  891,  892,  893,  894,  895
  896,  897,  898,  899,  900,  901,  902,  903,  904,  905,  906,  907,  908,  909, 1089, 1090
 1091, 1092, 1093, 1094, 1095, 1096, 1097, 1098, 1099, 1100, 1101, 1102, 1103, 1104, 1105, 1106
** ... 41 like lines cut
*Elset, elset=Set-SMA
   11,   12,   13,   14,   15,   16,   17,   18,   19,   20,   21,   22,   23,   24,   25,   26
   27,   28,   29,   30,   31,   32,   33,   34,   35,   36,   37,   38,   39,   40,   41,   42
   43,   44,   45,   46,   47,   48,   49,   50,   51,   52,   53,   54,   55,   56,   57,   58
   59,   60,   61,   62,   63,   64,   65,   66,   67,   68,   69,   70,   71,   72,   73,   74
   75,   76,   77,   78,   79,   80,   81,   82,   83,   84,   85,   86,   87,   88,   89,   90
   91,   92,   93,   94,   95,   96,   97,   98,   99,  100,  101,  102,  103,  104,  105,  106
  107,  108,  109,  110,  111,  112,  113,  114,  115,  116,  117,  118,  119,  120,  121,  122
  123,  124,  125,  126,  127,  128,  129,  130,  131,  132,  133,  134,  135,  136,  137,  138
  139,  140,  141,  142,  143,  144,  145,  146,  147,  148,  149,  150,  151,  152,  153,  154
  155,  156,  157,  158,  159,  160,  161,  162,  163,  164,  165,  166,  167,  168,  169,  170
  171,  172,  173,  174,  175,  176,  177,  178,  179,  180,  181,  182,  183,  184,  185,  186
  187,  188,  189,  190,  191,  192,  193,  194,  195,  196,  197,  198,  199,  200,  201,  202
  203,  204,  205,  206,  207,  208,  209,  210,  211,  212,  213,  214,  215,  216,  217,  218
  219,  220,  221,  222,  223,  224,  225,  226,  227,  228,  229,  230,  231,  232,  233,  234
  235,  236,  237,  238,  239,  240,  241,  242,  243,  244,  245,  246,  247,  248,  249,  250
  251,  252,  253,  254,  255,  256,  257,  258,  259,  260,  261,  262,  263,  264,  265,  266
  267,  268,  269,  270,  271,  272,  273,  274,  275,  276,  277,  278,  279,  280,  281,  282
  283,  284,  285,  286,  287,  288,  289,  290,  291,  292,  293,  294,  295,  296,  297,  298
  299,  300,  301,  302,  303,  304,  305,  306,  307,  308,  309,  310,  631,  632,  633,  634
  635,  636,  637,  638,  639,  640,  641,  642,  643,  644,  645,  646,  647,  648,  649,  650
** ... 30 like lines cut
*Nset, nset=Set-OML-Aluminum
    1,    2,    5,    6,    7,    8,    9,   10,   11,   12,   13,   14,   15,   16,   19,   20
   21,   22,   23,   24,   25,   26,   27,   28,   29,   30,   31,   32,   33,   34,   35,   36
   37,   38,   39,   40,   41,   42,   43,   44,  141,  142,  143,  144,  557,  558,  559,  560
  561,  562,  563,  564,  565,  575,  576,  577,  578,  579,  580,  581,  582,  583,  593,  594
  595,  596,  597,  598,  599,  600,  601,  611,  612,  613,  614,  615,  616,  617,  618,  619
  629,  630,  631,  632,  633,  634,  635,  636,  637,  647,  648,  649,  650,  651,  652,  653
  654,  655,  665,  666,  667,  668,  669,  670,  671,  672,  673,  692,  693,  694,  695,  696
  697,  698,  699,  700,  701,  702,  703,  704,  705,  706,  707,  708,  709,  710,  711,  712
  713,  714,  715,  716,  717,  718,  719,  720,  721,  722,  723,  724,  725,  726,  727,  728
  729,  730,  731,  732,  733,  734,  735,  736,  737,  738,  739,  740,  741,  742,  743,  744
  745,  746,  747,  748,  749,  750,  751,  752,  753,  754,  755,  756,  757,  758,  759,  760
  761,  762,  763,  764,  765,  766,  767,  768,  769,  770,  771,  772,  773,  774,  784,  785
  786,  787,  788,  789,  790,  791,  792,  802,  803,  804,  805,  806,  807,  808,  809,  810
  820,  821,  822,  823,  824,  825,  826,  827,  828,  838,  839,  840,  841,  842,  843,  844
  845,  846,  856,  857,  858,  859,  860,  861,  862,  863,  864,  874,  875,  876,  877,  878
  879,  880,  881,  882,  892,  893,  894,  895,  896,  897,  898,  899,  900,  910,  911,  912
  913,  914,  915,  916,  917,  918,  919,  920,  921,  922,  923,  924,  925,  926,  927,  928
  929,  930,  931,  932,  933,  934,  935,  936,  937,  938,  939,  940,  941,  942,  943,  944
  945,  946,  947,  948,  949,  950,  951,  952,  953,  954,  955,  956,  957,  958,  959,  960
  961,  962,  963,  964,  965,  966,  967,  968,  969,  970,  971,  972,  973,  974,  975,  976
** ... 73 like lines cut
*Elset, elset=Set-OML-Aluminum
  321,  322,  323,  324,  325,  326,  327,  328,  329,  330,  331,  332,  333,  334,  335,  336
  337,  338,  339,  340,  341,  342,  343,  344,  345,  346,  347,  348,  349,  350,  351,  352
  353,  354,  355,  356,  357,  358,  359,  360,  361,  362,  363,  364,  365,  366,  367,  368
  369,  370,  371,  372,  373,  374,  375,  376,  377,  378,  379,  380,  381,  382,  383,  384
  385,  386,  387,  388,  389,  390,  391,  392,  393,  394,  395,  396,  397,  398,  399,  400
  401,  402,  403,  404,  405,  406,  407,  408,  409,  410,  411,  412,  413,  414,  415,  416
  417,  418,  419,  420,  421,  422,  423,  424,  425,  426,  427,  428,  429,  430,  431,  432
  433,  434,  435,  436,  437,  438,  439,  440,  441,  442,  443,  444,  445,  446,  447,  448
  449,  450,  451,  452,  453,  454,  455,  456,  457,  458,  459,  460,  461,  462,  463,  464
  465,  466,  467,  468,  469,  470,  471,  472,  473,  474,  475,  476,  477,  478,  479,  480
  481,  482,  483,  484,  485,  486,  487,  488,  489,  490,  491,  492,  493,  494,  495,  496
  497,  498,  499,  500,  501,  502,  503,  504,  505,  506,  507,  508,  509,  510,  511,  512
  513,  514,  515,  516,  517,  518,  519,  520,  521,  522,  523,  524,  525,  526,  527,  528
  529,  530,  531,  532,  533,  534,  535,  536,  537,  538,  539,  540,  541,  542,  543,  544
  545,  546,  547,  548,  549,  550,  551,  552,  553,  554,  555,  556,  557,  558,  559,  560
  561,  562,  563,  564,  565,  566,  567,  568,  569,  570,  571,  572,  573,  574,  575,  576
  577,  578,  579,  580,  581,  582,  583,  584,  585,  586,  587,  588,  589,  590,  591,  592
  593,  594,  595,  596,  597,  598,  599,  600,  601,  602,  603,  604,  605,  606,  607,  608
  609,  610,  611,  612,  613,  614,  615,  616,  617,  618,  619,  620,  621,  622,  623,  624
  625,  626,  627,  628,  629,  630, 1031, 1032, 1033, 1034, 1035, 1036, 1037, 1038, 1039, 1040
** ... 58 like lines cut
*Elset, elset=_Surf-OML_SNEG, internal
   11,   12,   13,   14,   15,   16,   17,   18,   19,   20,   21,   22,   23,   24,   25,   26
   27,   28,   29,   30,   31,   32,   33,   34,   35,   36,   37,   38,   39,   40,   41,   42
   43,   44,   45,   46,   47,   48,   49,   50,   51,   52,   53,   54,   55,   56,   57,   58
   59,   60,   61,   62,   63,   64,   65,   66,   67,   68,   69,   70,   71,   72,   73,   74
   75,   76,   77,   78,   79,   80,   81,   82,   83,   84,   85,   86,   87,   88,   89,   90
   91,   92,   93,   94,   95,   96,   97,   98,   99,  100,  101,  102,  103,  104,  105,  106
  107,  108,  109,  110,  111,  112,  113,  114,  115,  116,  117,  118,  119,  120,  121,  122
  123,  124,  125,  126,  127,  128,  129,  130,  131,  132,  133,  134,  135,  136,  137,  138
  139,  140,  141,  142,  143,  144,  145,  146,  147,  148,  149,  150,  151,  152,  153,  154
  155,  156,  157,  158,  159,  160,  161,  162,  163,  164,  165,  166,  167,  168,  169,  170
  171,  172,  173,  174,  175,  176,  177,  178,  179,  180,  181,  182,  183,  184,  185,  186
  187,  188,  189,  190,  191,  192,  193,  194,  195,  196,  197,  198,  199,  200,  201,  202
  203,  204,  205,  206,  207,  208,  209,  210,  211,  212,  213,  214,  215,  216,  217,  218
  219,  220,  221,  222,  223,  224,  225,  226,  227,  228,  229,  230,  231,  232,  233,  234
  235,  236,  237,  238,  239,  240,  241,  242,  243,  244,  245,  246,  247,  248,  249,  250
  251,  252,  253,  254,  255,  256,  257,  258,  259,  260,  261,  262,  263,  264,  265,  266
  267,  268,  269,  270,  271,  272,  273,  274,  275,  276,  277,  278,  279,  280,  281,  282
  283,  284,  285,  286,  287,  288,  289,  290,  291,  292,  293,  294,  295,  296,  297,  298
  299,  300,  301,  302,  303,  304,  305,  306,  307,  308,  309,  310,  321,  322,  323,  324
  325,  326,  327,  328,  329,  330,  331,  332,  333,  334,  335,  336,  337,  338,  339,  340
** ... 108 like lines cut
*Surface, type=ELEMENT, name=Surf-OML
_Surf-OML_SNEG, SNEG
** Section: Section-SMA
*Shell Section, elset=Set-SMA, material=SMA
0.002, 5
** Region: (Section-AL-2024:Set-OML-Aluminum)
*Elset, elset=_I3, internal
  321,  322,  323,  324,  325,  326,  327,  328,  329,  330,  331,  332,  333,  334,  335,  336
  337,  338,  339,  340,  341,  342,  343,  344,  345,  346,  347,  348,  349,  350,  351,  352
  353,  354,  355,  356,  357,  358,  359,  360,  361,  362,  363,  364,  365,  366,  367,  368
  369,  370,  371,  372,  373,  374,  375,  376,  377,  378,  379,  380,  381,  382,  383,  384
  385,  386,  387,  388,  389,  390,  391,  392,  393,  394,  395,  396,  397,  398,  399,  400
  401,  402,  403,  404,  405,  406,  407,  408,  409,  410,  411,  412,  413,  414,  415,  416
  417,  418,  419,  420,  421,  422,  423,  424,  425,  426,  427,  428,  429,  430,  431,  432
  433,  434,  435,  436,  437,  438,  439,  440,  441,  442,  443,  444,  445,  446,  447,  448
  449,  450,  451,  452,  453,  454,  455,  456,  457,  458,  459,  460,  461,  462,  463,  464
  465,  466,  467,  468,  469,  470,  471,  472,  473,  474,  475,  476,  477,  478,  479,  480
  481,  482,  483,  484,  485,  486,  487,  488,  489,  490,  491,  492,  493,  494,  495,  496
  497,  498,  499,  500,  501,  502,  503,  504,  505,  506,  507,  508,  509,  510,  511,  512
  513,  514,  515,  516,  517,  518,  519,  520,  521,  522,  523,  524,  525,  526,  527,  528
  529,  530,  531,  532,  533,  534,  535,  536,  537,  538,  539,  540,  541,  542,  543,  544
  545,  546,  547,  548,  549,  550,  551,  552,  553,  554,  555,  556,  557,  558,  559,  560
  561,  562,  563,  564,  565,  566,  567,  568,  569,  570,  571,  572,  573,  574,  575,  576
  577,  578,  579,  580,  581,  582,  583,  584,  585,  586,  587,  588,  589,  590,  591,  592
  593,  594,  595,  596,  597,  598,  599,  600,  601,  602,  603,  604,  605,  606,  607,  608
  609,  610,  611,  612,  613,  614,  615,  616,  617,  618,  619,  620,  621,  622,  623,  624
  625,  626,  627,  628,  629,  630, 1031, 1032, 1033, 1034, 1035, 1036, 1037, 1038, 1039, 1040
** ... 57 like lines cut
** Section: Section-AL-2024
*Shell Section, elset=_I3, material=AL-2024
0.002, 5
** Section: Section-AL-6061
*Shell Section, elset=Set-Venation-Structure, material=AL-6061
0.002, 5
*End Part
**  
**
** ASSEMBLY
**
*Assembly, name=Assembly
**  
*Instance, name=wing_structure-1, part=wing_structure
*End Instance
**  
*End Assembly
** 
** MATERIALS
** 
*Material, name=AL-2024
*Density
2768.,
*Elastic
 7.2395e+10, 0.33
*Material, name=AL-6061
*Density
2768.,
*Elastic
 7.2395e+10, 0.33
*Material, name=SMA
*Density
6450.,
*Elastic
 4e+10, 0.3
** ----------------------------------------------------------------
** 
** STEP: Analysis
** 
*Step, name=Analysis, nlgeom=YES
*Static
0.1, 1., 1e-05, 1.
** 
** OUTPUT REQUESTS
** 
*Restart, write, frequency=0
** 
** FIELD OUTPUT: F-Output-1
** 
*Output, field, variable=PRESELECT
** 
** HISTORY OUTPUT: H-Output-1
** 
*Output, history, variable=PRESELECT
*End Step
