1

   Abaqus 6.14-2                                  Date 15-Mar-2017   Time 16:11:02
   For use at TEXAS A _ M UNIVERSITY SYSTEM under license from Dassault Systemes or its subsidiary.



                         The Abaqus Software is a product of:

                           Dassault Systemes Simulia Corp.
                                 Rising Sun Mills
                                 166 Valley Street
                           Providence, RI 02909-2499, USA
 


                   Available for internal use at TEXAS A _ M UNIVERSITY SYSTEM. 
                   The Abaqus Online Support System is accessible
                   through the "My Support" section of the SIMULIA
                   Home Page at http://www.simulia.com.

                   Support policies for academic licenses are described
                   on the SIMULIA web site at
                   http://www.3ds.com/products/simulia/academics/
 
                          On machine AERO-GLRJMD2 
                          you are authorized to run
                          Abaqus/Standard until 30-Oct-2017

                          Your site id is: 200000000002185 


 
                    For assistance or any other information you may
                    obtain contact information for your local office
                    from the world wide web at:

                      http://www.3ds.com/products/simulia/locations/

 
                * * * * * * * * * * * * * * * * * * * * * * * * * * * * * * 
                *                                                         * 
                *                   *****************                     * 
                *                   *  N O T I C E  *                     * 
                *                   *****************                     * 
                *                                                         * 
                *                                                         * 
                *                    Abaqus 6.14-2                        * 
                *                                                         * 
                *          BUILD ID: 2014_08_22-09.00.46 134497           * 
                *                                                         * 
                *                                                         * 
                *  Please make sure you are using release 6.14 manuals    * 
                *  plus the notes accompanying this release.              * 
                *                                                         * 
                *                                                         * 
                *                                                         * 
                *                                                         * 
                *                                                         * 
                *   This program may not be used for commercial purposes  * 
                *           without payment of a commercial fee.          * 
                *                                                         * 
                * * * * * * * * * * * * * * * * * * * * * * * * * * * * * * 


 



     PROCESSING PART, INSTANCE, AND ASSEMBLY INFORMATION
   *******************************************************


     END PROCESSING PART, INSTANCE, AND ASSEMBLY INFORMATION
   ***********************************************************




     OPTIONS BEING PROCESSED
   ***************************


  *Heading
  *Node
  *Element, type=S4R
  *Nset, nset=ASSEMBLY_WING_STRUCTURE-1_SET-OML
  *Nset, nset=ASSEMBLY_WING_STRUCTURE-1_SET-OML-ALUMINUM
  *Nset, nset=ASSEMBLY_WING_STRUCTURE-1_SET-SMA
  *Nset, nset=ASSEMBLY_WING_STRUCTURE-1_SET-SPARS
  *Nset, nset=ASSEMBLY_WING_STRUCTURE-1_SET-VENATION-STRUCTURE
  *Elset, elset=ASSEMBLY_WING_STRUCTURE-1_SET-OML
  *Elset, elset=ASSEMBLY_WING_STRUCTURE-1_SET-OML-ALUMINUM
  *Elset, elset=ASSEMBLY_WING_STRUCTURE-1_SET-SMA
  *Elset, elset=ASSEMBLY_WING_STRUCTURE-1_SET-SPARS
  *Elset, elset=ASSEMBLY_WING_STRUCTURE-1_SET-VENATION-STRUCTURE
  *Elset, elset=ASSEMBLY_WING_STRUCTURE-1__I2
  *Elset, elset=ASSEMBLY_WING_STRUCTURE-1__SURF-OML_SNEG
  *Nset, nset=ASSEMBLY_TIPNODE
  *surface, type=ELEMENT, name=ASSEMBLY_WING_STRUCTURE-1_SURF-OML
  *surface, type=ELEMENT, name=ASSEMBLY_WING_STRUCTURE-1_SURF-OML
  *material, name=AL-2024
  *density
  *elastic
  *material, name=AL-6061
  *density
  *elastic
  *material, name=SMA
  *density
  *elastic
  *shellsection, elset=ASSEMBLY_WING_STRUCTURE-1_SET-SMA, material=SMA
  *shellsection, elset=ASSEMBLY_WING_STRUCTURE-1__I2, material=AL-2024
  *shellsection, elset=ASSEMBLY_WING_STRUCTURE-1_SET-VENATION-STRUCTURE, material=AL-6061
  *shellsection, elset=ASSEMBLY_WING_STRUCTURE-1_SET-SPARS, material=AL-6061
  *boundary
  *shellsection, elset=ASSEMBLY_WING_STRUCTURE-1_SET-SMA, material=SMA
  *shellsection, elset=ASSEMBLY_WING_STRUCTURE-1__I2, material=AL-2024
  *shellsection, elset=ASSEMBLY_WING_STRUCTURE-1_SET-VENATION-STRUCTURE, material=AL-6061
  *shellsection, elset=ASSEMBLY_WING_STRUCTURE-1_SET-SPARS, material=AL-6061
  *surface, type=ELEMENT, name=ASSEMBLY_WING_STRUCTURE-1_SURF-OML
  *output, field, variable=PRESELECT
  *output, history, variable=PRESELECT
  *output, field, variable=PRESELECT
  *output, history, variable=PRESELECT
  *output, field, variable=PRESELECT
  *output, history, variable=PRESELECT
  *output, field, variable=PRESELECT
  *output, history, variable=PRESELECT
  *output, field, variable=PRESELECT
  *output, history, variable=PRESELECT
  *output, field, variable=PRESELECT
  *output, history, variable=PRESELECT
  *Step, name="Aerodynamic loading", nlgeom=YES
  *output, field, variable=PRESELECT
  *output, history, variable=PRESELECT
  *Step, name="Morphing displacement", nlgeom=YES
  *output, field, variable=PRESELECT
  *output, history, variable=PRESELECT
  *Step, name="Aerodynamic loading", nlgeom=YES
  *Step, name="Morphing displacement", nlgeom=YES
  *Step, name="Aerodynamic loading", nlgeom=YES
  *static
  *boundary
  *dload
  *output, field, variable=PRESELECT
  *output, history, variable=PRESELECT
  *endstep
  *Step, name="Morphing displacement", nlgeom=YES
  *static
  *boundary
  *dload, op=NEW
  *output, field, variable=PRESELECT
  *output, history, variable=PRESELECT
  *endstep
  *Step, name="Aerodynamic loading", nlgeom=YES
  *static
  *boundary
  *endstep
  *Step, name="Morphing displacement", nlgeom=YES
  *static
  *boundary
  *endstep

 ***ERROR: TWO BOUNDARY CONDITIONS WITH CONFLICTING DISPLACEMENTS HAVE BEEN 
           IDENTIFIED FOR NODE 17 INSTANCE WING_STRUCTURE-1 DOF 2. THIS 
           SITUATION MAY ALSO OCCUR WHEN BOUNDARY CONDITIONS HAVE BEEN DEFINED 
           FOR A NODE SET CONTAINING THIS NODE AND LATER RE-DEFINED USING THE 
           NODE LABEL INSTEAD. IF THIS IS THE CASE, PLEASE MAKE THE DEFINITIONS 
           CONSISTENT BY USING EITHER THE NODE SET OR NODE LABEL.
 ***NOTE: DUE TO AN INPUT ERROR THE ANALYSIS PRE-PROCESSOR HAS BEEN UNABLE TO 
          INTERPRET SOME DATA.  SUBSEQUENT ERRORS MAY BE CAUSED BY THIS OMISSION

 ***ERROR: TWO BOUNDARY CONDITIONS WITH CONFLICTING DISPLACEMENTS HAVE BEEN 
           IDENTIFIED FOR NODE 18 INSTANCE WING_STRUCTURE-1 DOF 2. THIS 
           SITUATION MAY ALSO OCCUR WHEN BOUNDARY CONDITIONS HAVE BEEN DEFINED 
           FOR A NODE SET CONTAINING THIS NODE AND LATER RE-DEFINED USING THE 
           NODE LABEL INSTEAD. IF THIS IS THE CASE, PLEASE MAKE THE DEFINITIONS 
           CONSISTENT BY USING EITHER THE NODE SET OR NODE LABEL.

 ***ERROR: TWO BOUNDARY CONDITIONS WITH CONFLICTING DISPLACEMENTS HAVE BEEN 
           IDENTIFIED FOR NODE 37 INSTANCE WING_STRUCTURE-1 DOF 2. THIS 
           SITUATION MAY ALSO OCCUR WHEN BOUNDARY CONDITIONS HAVE BEEN DEFINED 
           FOR A NODE SET CONTAINING THIS NODE AND LATER RE-DEFINED USING THE 
           NODE LABEL INSTEAD. IF THIS IS THE CASE, PLEASE MAKE THE DEFINITIONS 
           CONSISTENT BY USING EITHER THE NODE SET OR NODE LABEL.

 ***ERROR: TWO BOUNDARY CONDITIONS WITH CONFLICTING DISPLACEMENTS HAVE BEEN 
           IDENTIFIED FOR NODE 38 INSTANCE WING_STRUCTURE-1 DOF 2. THIS 
           SITUATION MAY ALSO OCCUR WHEN BOUNDARY CONDITIONS HAVE BEEN DEFINED 
           FOR A NODE SET CONTAINING THIS NODE AND LATER RE-DEFINED USING THE 
           NODE LABEL INSTEAD. IF THIS IS THE CASE, PLEASE MAKE THE DEFINITIONS 
           CONSISTENT BY USING EITHER THE NODE SET OR NODE LABEL.

 ***ERROR: TWO BOUNDARY CONDITIONS WITH CONFLICTING DISPLACEMENTS HAVE BEEN 
           IDENTIFIED FOR NODE 47 INSTANCE WING_STRUCTURE-1 DOF 2. THIS 
           SITUATION MAY ALSO OCCUR WHEN BOUNDARY CONDITIONS HAVE BEEN DEFINED 
           FOR A NODE SET CONTAINING THIS NODE AND LATER RE-DEFINED USING THE 
           NODE LABEL INSTEAD. IF THIS IS THE CASE, PLEASE MAKE THE DEFINITIONS 
           CONSISTENT BY USING EITHER THE NODE SET OR NODE LABEL.

 ***ERROR: TWO BOUNDARY CONDITIONS WITH CONFLICTING DISPLACEMENTS HAVE BEEN 
           IDENTIFIED FOR NODE 48 INSTANCE WING_STRUCTURE-1 DOF 2. THIS 
           SITUATION MAY ALSO OCCUR WHEN BOUNDARY CONDITIONS HAVE BEEN DEFINED 
           FOR A NODE SET CONTAINING THIS NODE AND LATER RE-DEFINED USING THE 
           NODE LABEL INSTEAD. IF THIS IS THE CASE, PLEASE MAKE THE DEFINITIONS 
           CONSISTENT BY USING EITHER THE NODE SET OR NODE LABEL.

 ***ERROR: TWO BOUNDARY CONDITIONS WITH CONFLICTING DISPLACEMENTS HAVE BEEN 
           IDENTIFIED FOR NODE 49 INSTANCE WING_STRUCTURE-1 DOF 2. THIS 
           SITUATION MAY ALSO OCCUR WHEN BOUNDARY CONDITIONS HAVE BEEN DEFINED 
           FOR A NODE SET CONTAINING THIS NODE AND LATER RE-DEFINED USING THE 
           NODE LABEL INSTEAD. IF THIS IS THE CASE, PLEASE MAKE THE DEFINITIONS 
           CONSISTENT BY USING EITHER THE NODE SET OR NODE LABEL.

 ***ERROR: TWO BOUNDARY CONDITIONS WITH CONFLICTING DISPLACEMENTS HAVE BEEN 
           IDENTIFIED FOR NODE 50 INSTANCE WING_STRUCTURE-1 DOF 2. THIS 
           SITUATION MAY ALSO OCCUR WHEN BOUNDARY CONDITIONS HAVE BEEN DEFINED 
           FOR A NODE SET CONTAINING THIS NODE AND LATER RE-DEFINED USING THE 
           NODE LABEL INSTEAD. IF THIS IS THE CASE, PLEASE MAKE THE DEFINITIONS 
           CONSISTENT BY USING EITHER THE NODE SET OR NODE LABEL.

 ***ERROR: 8 nodes have dof on which velocity/displacement/acceleration/base 
           motion etc. constraints are specified simultaneously. The nodes have 
           been identified in node set ErrNodeBCRedundantDof.



                            P R O B L E M   S I Z E


          NUMBER OF ELEMENTS IS                                   189
          NUMBER OF NODES IS                                      368
          NUMBER OF NODES DEFINED BY THE USER                     368
          TOTAL NUMBER OF VARIABLES IN THE MODEL                 2208
          (DEGREES OF FREEDOM PLUS MAX NO. OF ANY LAGRANGE MULTIPLIER
           VARIABLES. INCLUDE *PRINT,SOLVE=YES TO GET THE ACTUAL NUMBER.)





          THE PROGRAM HAS DISCOVERED     9 FATAL ERRORS

               ** EXECUTION IS TERMINATED **



                              END OF USER INPUT PROCESSING



     JOB TIME SUMMARY
       USER TIME (SEC)      =  0.20000    
       SYSTEM TIME (SEC)    =  0.10000    
       TOTAL CPU TIME (SEC) =  0.30000    
       WALLCLOCK TIME (SEC) =          0
