1

   Abaqus 6.14-2                                  Date 25-Feb-2017   Time 00:03:04
   For use at TEXAS A _ M UNIVERSITY SYSTEM under license from Dassault Systemes or its subsidiary.



                         The Abaqus Software is a product of:

                           Dassault Systemes Simulia Corp.
                                 Rising Sun Mills
                                 166 Valley Street
                           Providence, RI 02909-2499, USA
 


                   Available for internal use at TEXAS A _ M UNIVERSITY SYSTEM. 
                   The Abaqus Online Support System is accessible
                   through the "My Support" section of the SIMULIA
                   Home Page at http://www.simulia.com.

                   Support policies for academic licenses are described
                   on the SIMULIA web site at
                   http://www.3ds.com/products/simulia/academics/
 
                          On machine AERO-GLRJMD2 
                          you are authorized to run
                          Abaqus/Standard until 30-Oct-2017

                          Your site id is: 200000000002185 


 
                    For assistance or any other information you may
                    obtain contact information for your local office
                    from the world wide web at:

                      http://www.3ds.com/products/simulia/locations/

 
                * * * * * * * * * * * * * * * * * * * * * * * * * * * * * * 
                *                                                         * 
                *                   *****************                     * 
                *                   *  N O T I C E  *                     * 
                *                   *****************                     * 
                *                                                         * 
                *                                                         * 
                *                    Abaqus 6.14-2                        * 
                *                                                         * 
                *          BUILD ID: 2014_08_22-09.00.46 134497           * 
                *                                                         * 
                *                                                         * 
                *  Please make sure you are using release 6.14 manuals    * 
                *  plus the notes accompanying this release.              * 
                *                                                         * 
                *                                                         * 
                *                                                         * 
                *                                                         * 
                *                                                         * 
                *   This program may not be used for commercial purposes  * 
                *           without payment of a commercial fee.          * 
                *                                                         * 
                * * * * * * * * * * * * * * * * * * * * * * * * * * * * * * 


 



     PROCESSING PART, INSTANCE, AND ASSEMBLY INFORMATION
   *******************************************************


     END PROCESSING PART, INSTANCE, AND ASSEMBLY INFORMATION
   ***********************************************************




     OPTIONS BEING PROCESSED
   ***************************


  *Heading
  *Node
  *Element, type=S4R
  *Nset, nset=ASSEMBLY_WING_STRUCTURE-1_SET-OML-ALUMINUM
  *Nset, nset=ASSEMBLY_WING_STRUCTURE-1_SET-SMA
  *Nset, nset=ASSEMBLY_WING_STRUCTURE-1_SET-VENATION-STRUCTURE
  *Elset, elset=ASSEMBLY_WING_STRUCTURE-1_SET-OML-ALUMINUM
  *Elset, elset=ASSEMBLY_WING_STRUCTURE-1_SET-SMA
  *Elset, elset=ASSEMBLY_WING_STRUCTURE-1_SET-VENATION-STRUCTURE
  *Elset, elset=ASSEMBLY_WING_STRUCTURE-1__I3
  *Elset, elset=ASSEMBLY_WING_STRUCTURE-1__SURF-OML_SNEG
  *surface, type=ELEMENT, name=ASSEMBLY_WING_STRUCTURE-1_SURF-OML
  *surface, type=ELEMENT, name=ASSEMBLY_WING_STRUCTURE-1_SURF-OML
  *material, name=AL-2024
  *density
  *elastic
  *material, name=AL-6061
  *density
  *elastic
  *material, name=SMA
  *density
  *elastic
  *shellsection, elset=ASSEMBLY_WING_STRUCTURE-1_SET-SMA, material=SMA
  *shellsection, elset=ASSEMBLY_WING_STRUCTURE-1__I3, material=AL-2024
  *shellsection, elset=ASSEMBLY_WING_STRUCTURE-1_SET-VENATION-STRUCTURE, material=AL-6061
  *shellsection, elset=ASSEMBLY_WING_STRUCTURE-1_SET-SMA, material=SMA
  *shellsection, elset=ASSEMBLY_WING_STRUCTURE-1__I3, material=AL-2024
  *shellsection, elset=ASSEMBLY_WING_STRUCTURE-1_SET-VENATION-STRUCTURE, material=AL-6061
  *surface, type=ELEMENT, name=ASSEMBLY_WING_STRUCTURE-1_SURF-OML
  *output, field, variable=PRESELECT
  *output, history, variable=PRESELECT
  *output, field, variable=PRESELECT
  *output, history, variable=PRESELECT
  *output, field, variable=PRESELECT
  *output, history, variable=PRESELECT

 ***ERROR: 90 elements have missing property definitions. The elements have 
           been identified in element set ErrElemMissingSection.
 ***NOTE: DUE TO AN INPUT ERROR THE ANALYSIS PRE-PROCESSOR HAS BEEN UNABLE TO 
          INTERPRET SOME DATA.  SUBSEQUENT ERRORS MAY BE CAUSED BY THIS OMISSION
  *Step, name=Analysis, nlgeom=YES
  *output, field, variable=PRESELECT
  *output, history, variable=PRESELECT
  *Step, name=Analysis, nlgeom=YES
  *Step, name=Analysis, nlgeom=YES
  *static
  *output, field, variable=PRESELECT
  *output, history, variable=PRESELECT
  *endstep
  *Step, name=Analysis, nlgeom=YES
  *static
  *endstep



                            P R O B L E M   S I Z E


          NUMBER OF ELEMENTS IS                                  4670
          NUMBER OF NODES IS                                     5093
          NUMBER OF NODES DEFINED BY THE USER                    5093
          TOTAL NUMBER OF VARIABLES IN THE MODEL                30558
          (DEGREES OF FREEDOM PLUS MAX NO. OF ANY LAGRANGE MULTIPLIER
           VARIABLES. INCLUDE *PRINT,SOLVE=YES TO GET THE ACTUAL NUMBER.)





          THE PROGRAM HAS DISCOVERED     1 FATAL ERRORS

               ** EXECUTION IS TERMINATED **



                              END OF USER INPUT PROCESSING



     JOB TIME SUMMARY
       USER TIME (SEC)      =  0.40000    
       SYSTEM TIME (SEC)    =  0.10000    
       TOTAL CPU TIME (SEC) =  0.50000    
       WALLCLOCK TIME (SEC) =          0
