*Heading
** Job name: Job-1 Model name: Model-1
** Generated by: Abaqus/CAE 6.14-2
*Preprint, echo=NO, model=NO, history=NO, contact=NO
**
** PARTS
**
*Part, name=Part-1
*Node
      1,          20.,          20.,          20.
      2,          20.,          18.,          20.
      3,          20.,          16.,          20.
      4,          20.,          14.,          20.
      5,          20.,          12.,          20.
      6,          20.,          10.,          20.
      7,          20.,           8.,          20.
      8,          20.,           6.,          20.
      9,          20.,           4.,          20.
     10,          20.,           2.,          20.
     11,          20.,           0.,          20.
     12,          20.,          20.,          18.
     13,          20.,          18.,          18.
     14,          20.,          16.,          18.
     15,          20.,          14.,          18.
     16,          20.,          12.,          18.
     17,          20.,          10.,          18.
     18,          20.,           8.,          18.
     19,          20.,           6.,          18.
     20,          20.,           4.,          18.
** ... 1311 like lines cut
*Element, type=C3D8R
   1,  122,  123,  134,  133,    1,    2,   13,   12
   2,  123,  124,  135,  134,    2,    3,   14,   13
   3,  124,  125,  136,  135,    3,    4,   15,   14
   4,  125,  126,  137,  136,    4,    5,   16,   15
   5,  126,  127,  138,  137,    5,    6,   17,   16
   6,  127,  128,  139,  138,    6,    7,   18,   17
   7,  128,  129,  140,  139,    7,    8,   19,   18
   8,  129,  130,  141,  140,    8,    9,   20,   19
   9,  130,  131,  142,  141,    9,   10,   21,   20
  10,  131,  132,  143,  142,   10,   11,   22,   21
  11,  133,  134,  145,  144,   12,   13,   24,   23
  12,  134,  135,  146,  145,   13,   14,   25,   24
  13,  135,  136,  147,  146,   14,   15,   26,   25
  14,  136,  137,  148,  147,   15,   16,   27,   26
  15,  137,  138,  149,  148,   16,   17,   28,   27
  16,  138,  139,  150,  149,   17,   18,   29,   28
  17,  139,  140,  151,  150,   18,   19,   30,   29
  18,  140,  141,  152,  151,   19,   20,   31,   30
  19,  141,  142,  153,  152,   20,   21,   32,   31
  20,  142,  143,  154,  153,   21,   22,   33,   32
** ... 980 like lines cut
*Nset, nset=Set-1, generate
    1,  1331,     1
*Elset, elset=Set-1, generate
    1,  1000,     1
** Section: Section-1
*Solid Section, elset=Set-1, material=Material-1
,
*End Part
**  
**
** ASSEMBLY
**
*Assembly, name=Assembly
**  
*Instance, name=Part-1-1, part=Part-1
*End Instance
**  
*Nset, nset=Set-1, instance=Part-1-1
    1,    2,    3,    4,    5,    6,    7,    8,    9,   10,   11,  122,  123,  124,  125,  126
  127,  128,  129,  130,  131,  132,  243,  244,  245,  246,  247,  248,  249,  250,  251,  252
  253,  364,  365,  366,  367,  368,  369,  370,  371,  372,  373,  374,  485,  486,  487,  488
  489,  490,  491,  492,  493,  494,  495,  606,  607,  608,  609,  610,  611,  612,  613,  614
  615,  616,  727,  728,  729,  730,  731,  732,  733,  734,  735,  736,  737,  848,  849,  850
  851,  852,  853,  854,  855,  856,  857,  858,  969,  970,  971,  972,  973,  974,  975,  976
  977,  978,  979, 1090, 1091, 1092, 1093, 1094, 1095, 1096, 1097, 1098, 1099, 1100, 1211, 1212
 1213, 1214, 1215, 1216, 1217, 1218, 1219, 1220, 1221
*Elset, elset=Set-1, instance=Part-1-1
   1,   2,   3,   4,   5,   6,   7,   8,   9,  10, 101, 102, 103, 104, 105, 106
 107, 108, 109, 110, 201, 202, 203, 204, 205, 206, 207, 208, 209, 210, 301, 302
 303, 304, 305, 306, 307, 308, 309, 310, 401, 402, 403, 404, 405, 406, 407, 408
 409, 410, 501, 502, 503, 504, 505, 506, 507, 508, 509, 510, 601, 602, 603, 604
 605, 606, 607, 608, 609, 610, 701, 702, 703, 704, 705, 706, 707, 708, 709, 710
 801, 802, 803, 804, 805, 806, 807, 808, 809, 810, 901, 902, 903, 904, 905, 906
 907, 908, 909, 910
*Nset, nset=Set-2, instance=Part-1-1
 111,
*Nset, nset=Set-3, instance=Part-1-1
    1,    2,    3,    4,    5,    6,    7,    8,    9,   10,   11,  122,  123,  124,  125,  126
  127,  128,  129,  130,  131,  132,  243,  244,  245,  246,  247,  248,  249,  250,  251,  252
  253,  364,  365,  366,  367,  368,  369,  370,  371,  372,  373,  374,  485,  486,  487,  488
  489,  490,  491,  492,  493,  494,  495,  606,  607,  608,  609,  610,  611,  612,  613,  614
  615,  616,  727,  728,  729,  730,  731,  732,  733,  734,  735,  736,  737,  848,  849,  850
  851,  852,  853,  854,  855,  856,  857,  858,  969,  970,  971,  972,  973,  974,  975,  976
  977,  978,  979, 1090, 1091, 1092, 1093, 1094, 1095, 1096, 1097, 1098, 1099, 1100, 1211, 1212
 1213, 1214, 1215, 1216, 1217, 1218, 1219, 1220, 1221
*Elset, elset=Set-3, instance=Part-1-1
   1,   2,   3,   4,   5,   6,   7,   8,   9,  10, 101, 102, 103, 104, 105, 106
 107, 108, 109, 110, 201, 202, 203, 204, 205, 206, 207, 208, 209, 210, 301, 302
 303, 304, 305, 306, 307, 308, 309, 310, 401, 402, 403, 404, 405, 406, 407, 408
 409, 410, 501, 502, 503, 504, 505, 506, 507, 508, 509, 510, 601, 602, 603, 604
 605, 606, 607, 608, 609, 610, 701, 702, 703, 704, 705, 706, 707, 708, 709, 710
 801, 802, 803, 804, 805, 806, 807, 808, 809, 810, 901, 902, 903, 904, 905, 906
 907, 908, 909, 910
*Nset, nset=Set-4, instance=Part-1-1
 111,
*End Assembly
** 
** MATERIALS
** 
*Material, name=Material-1
*Density
6500.,
*Elastic
 1.11111e+10, 0.33
** ----------------------------------------------------------------
** 
** STEP: Step-1
** 
*Step, name=Step-1, nlgeom=YES
*Static
1., 1., 1e-05, 1.
** 
** BOUNDARY CONDITIONS
** 
** Name: BC-1 Type: Symmetry/Antisymmetry/Encastre
*Boundary
Set-3, ENCASTRE
** 
** LOADS
** 
** Name: Load-1   Type: Concentrated force
*Cload
Set-2, 1, 1.
** 
** OUTPUT REQUESTS
** 
*Restart, write, frequency=0
** 
** FIELD OUTPUT: F-Output-1
** 
*Output, field, variable=PRESELECT
** 
** HISTORY OUTPUT: H-Output-1
** 
*Output, history, variable=PRESELECT
*End Step
** ----------------------------------------------------------------
** 
** STEP: Step-2
** 
*Step, name=Step-2, nlgeom=YES
*Static
1., 1., 1e-05, 1.
** 
** BOUNDARY CONDITIONS
** 
** Name: BC-2 Type: Displacement/Rotation
*Boundary
Set-4, 1, 1, 1.
** 
** LOADS
** 
** Name: Load-1   Type: Concentrated force
*Cload, op=NEW
** 
** OUTPUT REQUESTS
** 
*Restart, write, frequency=0
** 
** FIELD OUTPUT: F-Output-1
** 
*Output, field, variable=PRESELECT
** 
** HISTORY OUTPUT: H-Output-1
** 
*Output, history, variable=PRESELECT
*End Step
